*SPEF "ieee 1481-1999"
*DESIGN "project3"
*DATE "14:19:31 Sunday May 25, 2025"
*VENDOR "The OpenROAD Project"
*PROGRAM "OpenROAD"
*VERSION "b16bda7e82721d10566ff7e2b68f1ff0be9f9e38"
*DESIGN_FLOW "NAME_SCOPE LOCAL" "PIN_CAP NONE"
*DIVIDER /
*DELIMITER :
*BUS_DELIMITER []
*T_UNIT 1 NS
*C_UNIT 1 PF
*R_UNIT 1 OHM
*L_UNIT 1 HENRY

*NAME_MAP
*3 net10
*4 net11
*5 net12
*6 net13
*7 net14
*8 net15
*9 net16
*10 net9
*11 clk
*12 rst
*13 seg[0]
*14 seg[1]
*15 seg[2]
*16 seg[3]
*17 seg[4]
*18 seg[5]
*19 seg[6]
*20 _000_
*21 _001_
*22 _002_
*23 _003_
*24 _004_
*25 _005_
*26 _006_
*27 _007_
*28 _008_
*29 _009_
*30 _010_
*31 _011_
*32 _012_
*33 _013_
*34 _014_
*35 _015_
*36 _016_
*37 _017_
*38 _018_
*39 _019_
*40 _020_
*41 _021_
*42 _022_
*43 _023_
*44 _024_
*45 _025_
*46 _026_
*47 _027_
*48 _028_
*49 _029_
*50 _030_
*51 _031_
*52 _032_
*53 _033_
*54 _034_
*55 _035_
*56 _036_
*57 _037_
*58 _038_
*59 _039_
*60 _040_
*61 _041_
*62 _042_
*63 _043_
*64 _044_
*65 _045_
*66 _046_
*67 _047_
*68 _048_
*69 _049_
*70 _050_
*71 _051_
*72 _052_
*73 _053_
*74 _054_
*75 _055_
*76 _056_
*77 _057_
*78 _058_
*79 _059_
*80 _060_
*81 _061_
*82 _062_
*83 _063_
*84 _064_
*85 _065_
*86 _066_
*87 _067_
*88 _068_
*89 _069_
*90 _070_
*91 _071_
*92 _072_
*93 _073_
*94 _074_
*95 _075_
*96 _076_
*97 _077_
*98 _078_
*99 _079_
*100 _080_
*101 _081_
*102 _082_
*103 _083_
*104 _084_
*105 _085_
*106 _086_
*107 _087_
*108 _088_
*109 _089_
*110 _090_
*111 _091_
*112 _092_
*113 _093_
*114 _094_
*115 _095_
*116 _096_
*117 _097_
*118 _098_
*119 _099_
*120 _100_
*121 _101_
*122 _102_
*123 _103_
*124 _104_
*125 _105_
*126 _106_
*127 _107_
*128 _108_
*129 _109_
*130 _110_
*131 _111_
*132 _112_
*133 _113_
*134 _114_
*135 _115_
*136 _116_
*137 _117_
*138 _118_
*139 _119_
*140 _120_
*141 _121_
*142 _122_
*143 _123_
*144 _124_
*145 _125_
*146 _126_
*147 _127_
*148 _128_
*149 _129_
*150 _130_
*151 _131_
*152 _132_
*153 _133_
*154 _134_
*155 _135_
*156 _136_
*157 _137_
*158 _138_
*159 _139_
*160 _140_
*161 _141_
*162 _142_
*163 _143_
*164 _144_
*165 _145_
*166 _146_
*167 _147_
*168 _148_
*169 _149_
*170 _150_
*171 _151_
*172 _152_
*173 _153_
*174 _154_
*175 _155_
*176 _156_
*177 _157_
*178 _158_
*179 _159_
*180 _160_
*181 _161_
*182 clknet_0_clk
*183 clknet_2_0__leaf_clk
*184 clknet_2_1__leaf_clk
*185 clknet_2_2__leaf_clk
*186 clknet_2_3__leaf_clk
*187 decoder\.digit\[0\]
*188 decoder\.digit\[1\]
*189 decoder\.digit\[2\]
*190 decoder\.digit\[3\]
*191 net1
*192 net2
*193 net3
*194 net4
*195 net5
*196 net6
*197 net7
*198 net8
*199 one_second_counter\[0\]
*200 one_second_counter\[10\]
*201 one_second_counter\[11\]
*202 one_second_counter\[12\]
*203 one_second_counter\[13\]
*204 one_second_counter\[14\]
*205 one_second_counter\[15\]
*206 one_second_counter\[16\]
*207 one_second_counter\[17\]
*208 one_second_counter\[18\]
*209 one_second_counter\[19\]
*210 one_second_counter\[1\]
*211 one_second_counter\[20\]
*212 one_second_counter\[21\]
*213 one_second_counter\[22\]
*214 one_second_counter\[23\]
*215 one_second_counter\[24\]
*216 one_second_counter\[25\]
*217 one_second_counter\[26\]
*218 one_second_counter\[2\]
*219 one_second_counter\[3\]
*220 one_second_counter\[4\]
*221 one_second_counter\[5\]
*222 one_second_counter\[6\]
*223 one_second_counter\[7\]
*224 one_second_counter\[8\]
*225 one_second_counter\[9\]
*226 one_second_enable
*227 FILLER_0_0_1001
*228 FILLER_0_0_1007
*229 FILLER_0_0_1009
*230 FILLER_0_0_1021
*231 FILLER_0_0_1033
*232 FILLER_0_0_1037
*233 FILLER_0_0_1049
*234 FILLER_0_0_1057
*235 FILLER_0_0_109
*236 FILLER_0_0_113
*237 FILLER_0_0_125
*238 FILLER_0_0_137
*239 FILLER_0_0_141
*240 FILLER_0_0_15
*241 FILLER_0_0_153
*242 FILLER_0_0_165
*243 FILLER_0_0_169
*244 FILLER_0_0_181
*245 FILLER_0_0_193
*246 FILLER_0_0_200
*247 FILLER_0_0_212
*248 FILLER_0_0_225
*249 FILLER_0_0_237
*250 FILLER_0_0_249
*251 FILLER_0_0_253
*252 FILLER_0_0_265
*253 FILLER_0_0_27
*254 FILLER_0_0_277
*255 FILLER_0_0_281
*256 FILLER_0_0_29
*257 FILLER_0_0_293
*258 FILLER_0_0_3
*259 FILLER_0_0_305
*260 FILLER_0_0_309
*261 FILLER_0_0_321
*262 FILLER_0_0_332
*263 FILLER_0_0_337
*264 FILLER_0_0_349
*265 FILLER_0_0_361
*266 FILLER_0_0_365
*267 FILLER_0_0_377
*268 FILLER_0_0_389
*269 FILLER_0_0_393
*270 FILLER_0_0_405
*271 FILLER_0_0_41
*272 FILLER_0_0_417
*273 FILLER_0_0_421
*274 FILLER_0_0_433
*275 FILLER_0_0_445
*276 FILLER_0_0_449
*277 FILLER_0_0_461
*278 FILLER_0_0_467
*279 FILLER_0_0_475
*280 FILLER_0_0_477
*281 FILLER_0_0_489
*282 FILLER_0_0_501
*283 FILLER_0_0_505
*284 FILLER_0_0_517
*285 FILLER_0_0_529
*286 FILLER_0_0_53
*287 FILLER_0_0_533
*288 FILLER_0_0_545
*289 FILLER_0_0_557
*290 FILLER_0_0_561
*291 FILLER_0_0_57
*292 FILLER_0_0_573
*293 FILLER_0_0_585
*294 FILLER_0_0_589
*295 FILLER_0_0_597
*296 FILLER_0_0_602
*297 FILLER_0_0_614
*298 FILLER_0_0_617
*299 FILLER_0_0_62
*300 FILLER_0_0_629
*301 FILLER_0_0_641
*302 FILLER_0_0_645
*303 FILLER_0_0_657
*304 FILLER_0_0_669
*305 FILLER_0_0_673
*306 FILLER_0_0_685
*307 FILLER_0_0_697
*308 FILLER_0_0_701
*309 FILLER_0_0_713
*310 FILLER_0_0_725
*311 FILLER_0_0_729
*312 FILLER_0_0_733
*313 FILLER_0_0_737
*314 FILLER_0_0_74
*315 FILLER_0_0_749
*316 FILLER_0_0_755
*317 FILLER_0_0_757
*318 FILLER_0_0_769
*319 FILLER_0_0_781
*320 FILLER_0_0_785
*321 FILLER_0_0_797
*322 FILLER_0_0_809
*323 FILLER_0_0_813
*324 FILLER_0_0_82
*325 FILLER_0_0_825
*326 FILLER_0_0_837
*327 FILLER_0_0_841
*328 FILLER_0_0_85
*329 FILLER_0_0_853
*330 FILLER_0_0_865
*331 FILLER_0_0_872
*332 FILLER_0_0_884
*333 FILLER_0_0_897
*334 FILLER_0_0_909
*335 FILLER_0_0_921
*336 FILLER_0_0_925
*337 FILLER_0_0_937
*338 FILLER_0_0_949
*339 FILLER_0_0_953
*340 FILLER_0_0_965
*341 FILLER_0_0_97
*342 FILLER_0_0_977
*343 FILLER_0_0_981
*344 FILLER_0_0_993
*345 FILLER_0_100_1005
*346 FILLER_0_100_1017
*347 FILLER_0_100_1029
*348 FILLER_0_100_1035
*349 FILLER_0_100_1037
*350 FILLER_0_100_1049
*351 FILLER_0_100_1057
*352 FILLER_0_100_109
*353 FILLER_0_100_121
*354 FILLER_0_100_133
*355 FILLER_0_100_139
*356 FILLER_0_100_141
*357 FILLER_0_100_15
*358 FILLER_0_100_153
*359 FILLER_0_100_165
*360 FILLER_0_100_177
*361 FILLER_0_100_189
*362 FILLER_0_100_195
*363 FILLER_0_100_197
*364 FILLER_0_100_209
*365 FILLER_0_100_221
*366 FILLER_0_100_233
*367 FILLER_0_100_245
*368 FILLER_0_100_251
*369 FILLER_0_100_253
*370 FILLER_0_100_265
*371 FILLER_0_100_27
*372 FILLER_0_100_277
*373 FILLER_0_100_289
*374 FILLER_0_100_29
*375 FILLER_0_100_3
*376 FILLER_0_100_301
*377 FILLER_0_100_307
*378 FILLER_0_100_309
*379 FILLER_0_100_321
*380 FILLER_0_100_333
*381 FILLER_0_100_345
*382 FILLER_0_100_357
*383 FILLER_0_100_363
*384 FILLER_0_100_365
*385 FILLER_0_100_377
*386 FILLER_0_100_389
*387 FILLER_0_100_401
*388 FILLER_0_100_41
*389 FILLER_0_100_413
*390 FILLER_0_100_419
*391 FILLER_0_100_421
*392 FILLER_0_100_433
*393 FILLER_0_100_445
*394 FILLER_0_100_457
*395 FILLER_0_100_469
*396 FILLER_0_100_475
*397 FILLER_0_100_477
*398 FILLER_0_100_489
*399 FILLER_0_100_501
*400 FILLER_0_100_513
*401 FILLER_0_100_525
*402 FILLER_0_100_53
*403 FILLER_0_100_531
*404 FILLER_0_100_533
*405 FILLER_0_100_545
*406 FILLER_0_100_557
*407 FILLER_0_100_569
*408 FILLER_0_100_581
*409 FILLER_0_100_587
*410 FILLER_0_100_589
*411 FILLER_0_100_601
*412 FILLER_0_100_613
*413 FILLER_0_100_625
*414 FILLER_0_100_637
*415 FILLER_0_100_643
*416 FILLER_0_100_645
*417 FILLER_0_100_65
*418 FILLER_0_100_657
*419 FILLER_0_100_669
*420 FILLER_0_100_681
*421 FILLER_0_100_693
*422 FILLER_0_100_699
*423 FILLER_0_100_701
*424 FILLER_0_100_713
*425 FILLER_0_100_725
*426 FILLER_0_100_737
*427 FILLER_0_100_749
*428 FILLER_0_100_755
*429 FILLER_0_100_757
*430 FILLER_0_100_769
*431 FILLER_0_100_77
*432 FILLER_0_100_781
*433 FILLER_0_100_793
*434 FILLER_0_100_805
*435 FILLER_0_100_811
*436 FILLER_0_100_813
*437 FILLER_0_100_821
*438 FILLER_0_100_825
*439 FILLER_0_100_829
*440 FILLER_0_100_83
*441 FILLER_0_100_836
*442 FILLER_0_100_840
*443 FILLER_0_100_85
*444 FILLER_0_100_852
*445 FILLER_0_100_864
*446 FILLER_0_100_869
*447 FILLER_0_100_881
*448 FILLER_0_100_893
*449 FILLER_0_100_905
*450 FILLER_0_100_917
*451 FILLER_0_100_923
*452 FILLER_0_100_925
*453 FILLER_0_100_937
*454 FILLER_0_100_949
*455 FILLER_0_100_961
*456 FILLER_0_100_97
*457 FILLER_0_100_973
*458 FILLER_0_100_979
*459 FILLER_0_100_981
*460 FILLER_0_100_993
*461 FILLER_0_101_1001
*462 FILLER_0_101_1007
*463 FILLER_0_101_1009
*464 FILLER_0_101_1021
*465 FILLER_0_101_1033
*466 FILLER_0_101_1045
*467 FILLER_0_101_105
*468 FILLER_0_101_1057
*469 FILLER_0_101_111
*470 FILLER_0_101_113
*471 FILLER_0_101_125
*472 FILLER_0_101_137
*473 FILLER_0_101_149
*474 FILLER_0_101_15
*475 FILLER_0_101_161
*476 FILLER_0_101_167
*477 FILLER_0_101_169
*478 FILLER_0_101_181
*479 FILLER_0_101_193
*480 FILLER_0_101_205
*481 FILLER_0_101_217
*482 FILLER_0_101_223
*483 FILLER_0_101_225
*484 FILLER_0_101_237
*485 FILLER_0_101_249
*486 FILLER_0_101_261
*487 FILLER_0_101_27
*488 FILLER_0_101_273
*489 FILLER_0_101_279
*490 FILLER_0_101_281
*491 FILLER_0_101_293
*492 FILLER_0_101_3
*493 FILLER_0_101_305
*494 FILLER_0_101_317
*495 FILLER_0_101_329
*496 FILLER_0_101_335
*497 FILLER_0_101_337
*498 FILLER_0_101_345
*499 FILLER_0_101_350
*500 FILLER_0_101_360
*501 FILLER_0_101_364
*502 FILLER_0_101_376
*503 FILLER_0_101_388
*504 FILLER_0_101_39
*505 FILLER_0_101_393
*506 FILLER_0_101_405
*507 FILLER_0_101_417
*508 FILLER_0_101_429
*509 FILLER_0_101_441
*510 FILLER_0_101_447
*511 FILLER_0_101_449
*512 FILLER_0_101_461
*513 FILLER_0_101_473
*514 FILLER_0_101_485
*515 FILLER_0_101_497
*516 FILLER_0_101_503
*517 FILLER_0_101_505
*518 FILLER_0_101_51
*519 FILLER_0_101_517
*520 FILLER_0_101_521
*521 FILLER_0_101_525
*522 FILLER_0_101_533
*523 FILLER_0_101_545
*524 FILLER_0_101_55
*525 FILLER_0_101_557
*526 FILLER_0_101_561
*527 FILLER_0_101_57
*528 FILLER_0_101_573
*529 FILLER_0_101_585
*530 FILLER_0_101_597
*531 FILLER_0_101_609
*532 FILLER_0_101_615
*533 FILLER_0_101_617
*534 FILLER_0_101_629
*535 FILLER_0_101_641
*536 FILLER_0_101_653
*537 FILLER_0_101_665
*538 FILLER_0_101_671
*539 FILLER_0_101_673
*540 FILLER_0_101_685
*541 FILLER_0_101_69
*542 FILLER_0_101_697
*543 FILLER_0_101_709
*544 FILLER_0_101_721
*545 FILLER_0_101_727
*546 FILLER_0_101_729
*547 FILLER_0_101_741
*548 FILLER_0_101_753
*549 FILLER_0_101_765
*550 FILLER_0_101_777
*551 FILLER_0_101_783
*552 FILLER_0_101_785
*553 FILLER_0_101_797
*554 FILLER_0_101_809
*555 FILLER_0_101_81
*556 FILLER_0_101_821
*557 FILLER_0_101_833
*558 FILLER_0_101_839
*559 FILLER_0_101_841
*560 FILLER_0_101_853
*561 FILLER_0_101_865
*562 FILLER_0_101_868
*563 FILLER_0_101_877
*564 FILLER_0_101_889
*565 FILLER_0_101_895
*566 FILLER_0_101_897
*567 FILLER_0_101_909
*568 FILLER_0_101_921
*569 FILLER_0_101_93
*570 FILLER_0_101_933
*571 FILLER_0_101_945
*572 FILLER_0_101_951
*573 FILLER_0_101_953
*574 FILLER_0_101_965
*575 FILLER_0_101_977
*576 FILLER_0_101_989
*577 FILLER_0_102_1005
*578 FILLER_0_102_1017
*579 FILLER_0_102_1029
*580 FILLER_0_102_1035
*581 FILLER_0_102_1037
*582 FILLER_0_102_1049
*583 FILLER_0_102_1057
*584 FILLER_0_102_109
*585 FILLER_0_102_121
*586 FILLER_0_102_133
*587 FILLER_0_102_139
*588 FILLER_0_102_141
*589 FILLER_0_102_15
*590 FILLER_0_102_153
*591 FILLER_0_102_165
*592 FILLER_0_102_177
*593 FILLER_0_102_189
*594 FILLER_0_102_195
*595 FILLER_0_102_197
*596 FILLER_0_102_209
*597 FILLER_0_102_221
*598 FILLER_0_102_233
*599 FILLER_0_102_245
*600 FILLER_0_102_251
*601 FILLER_0_102_253
*602 FILLER_0_102_265
*603 FILLER_0_102_27
*604 FILLER_0_102_277
*605 FILLER_0_102_289
*606 FILLER_0_102_29
*607 FILLER_0_102_3
*608 FILLER_0_102_301
*609 FILLER_0_102_307
*610 FILLER_0_102_309
*611 FILLER_0_102_321
*612 FILLER_0_102_333
*613 FILLER_0_102_345
*614 FILLER_0_102_357
*615 FILLER_0_102_363
*616 FILLER_0_102_365
*617 FILLER_0_102_377
*618 FILLER_0_102_389
*619 FILLER_0_102_401
*620 FILLER_0_102_41
*621 FILLER_0_102_413
*622 FILLER_0_102_419
*623 FILLER_0_102_421
*624 FILLER_0_102_433
*625 FILLER_0_102_445
*626 FILLER_0_102_457
*627 FILLER_0_102_469
*628 FILLER_0_102_475
*629 FILLER_0_102_477
*630 FILLER_0_102_489
*631 FILLER_0_102_501
*632 FILLER_0_102_513
*633 FILLER_0_102_525
*634 FILLER_0_102_53
*635 FILLER_0_102_531
*636 FILLER_0_102_533
*637 FILLER_0_102_545
*638 FILLER_0_102_557
*639 FILLER_0_102_569
*640 FILLER_0_102_581
*641 FILLER_0_102_587
*642 FILLER_0_102_589
*643 FILLER_0_102_601
*644 FILLER_0_102_613
*645 FILLER_0_102_625
*646 FILLER_0_102_637
*647 FILLER_0_102_643
*648 FILLER_0_102_645
*649 FILLER_0_102_65
*650 FILLER_0_102_657
*651 FILLER_0_102_669
*652 FILLER_0_102_681
*653 FILLER_0_102_693
*654 FILLER_0_102_699
*655 FILLER_0_102_701
*656 FILLER_0_102_713
*657 FILLER_0_102_725
*658 FILLER_0_102_737
*659 FILLER_0_102_749
*660 FILLER_0_102_755
*661 FILLER_0_102_757
*662 FILLER_0_102_769
*663 FILLER_0_102_77
*664 FILLER_0_102_781
*665 FILLER_0_102_793
*666 FILLER_0_102_805
*667 FILLER_0_102_811
*668 FILLER_0_102_813
*669 FILLER_0_102_825
*670 FILLER_0_102_83
*671 FILLER_0_102_837
*672 FILLER_0_102_85
*673 FILLER_0_102_869
*674 FILLER_0_102_881
*675 FILLER_0_102_893
*676 FILLER_0_102_905
*677 FILLER_0_102_917
*678 FILLER_0_102_923
*679 FILLER_0_102_925
*680 FILLER_0_102_937
*681 FILLER_0_102_949
*682 FILLER_0_102_961
*683 FILLER_0_102_97
*684 FILLER_0_102_973
*685 FILLER_0_102_979
*686 FILLER_0_102_981
*687 FILLER_0_102_993
*688 FILLER_0_103_1001
*689 FILLER_0_103_1007
*690 FILLER_0_103_1009
*691 FILLER_0_103_1021
*692 FILLER_0_103_1033
*693 FILLER_0_103_1045
*694 FILLER_0_103_105
*695 FILLER_0_103_1057
*696 FILLER_0_103_111
*697 FILLER_0_103_113
*698 FILLER_0_103_125
*699 FILLER_0_103_137
*700 FILLER_0_103_149
*701 FILLER_0_103_15
*702 FILLER_0_103_161
*703 FILLER_0_103_167
*704 FILLER_0_103_169
*705 FILLER_0_103_181
*706 FILLER_0_103_193
*707 FILLER_0_103_205
*708 FILLER_0_103_217
*709 FILLER_0_103_223
*710 FILLER_0_103_225
*711 FILLER_0_103_237
*712 FILLER_0_103_249
*713 FILLER_0_103_261
*714 FILLER_0_103_27
*715 FILLER_0_103_273
*716 FILLER_0_103_279
*717 FILLER_0_103_281
*718 FILLER_0_103_293
*719 FILLER_0_103_3
*720 FILLER_0_103_305
*721 FILLER_0_103_317
*722 FILLER_0_103_329
*723 FILLER_0_103_335
*724 FILLER_0_103_337
*725 FILLER_0_103_349
*726 FILLER_0_103_361
*727 FILLER_0_103_373
*728 FILLER_0_103_385
*729 FILLER_0_103_39
*730 FILLER_0_103_391
*731 FILLER_0_103_393
*732 FILLER_0_103_405
*733 FILLER_0_103_417
*734 FILLER_0_103_429
*735 FILLER_0_103_441
*736 FILLER_0_103_447
*737 FILLER_0_103_449
*738 FILLER_0_103_461
*739 FILLER_0_103_473
*740 FILLER_0_103_485
*741 FILLER_0_103_497
*742 FILLER_0_103_503
*743 FILLER_0_103_505
*744 FILLER_0_103_51
*745 FILLER_0_103_517
*746 FILLER_0_103_529
*747 FILLER_0_103_541
*748 FILLER_0_103_55
*749 FILLER_0_103_553
*750 FILLER_0_103_559
*751 FILLER_0_103_561
*752 FILLER_0_103_57
*753 FILLER_0_103_573
*754 FILLER_0_103_581
*755 FILLER_0_103_593
*756 FILLER_0_103_605
*757 FILLER_0_103_613
*758 FILLER_0_103_617
*759 FILLER_0_103_629
*760 FILLER_0_103_641
*761 FILLER_0_103_653
*762 FILLER_0_103_665
*763 FILLER_0_103_671
*764 FILLER_0_103_673
*765 FILLER_0_103_685
*766 FILLER_0_103_69
*767 FILLER_0_103_697
*768 FILLER_0_103_709
*769 FILLER_0_103_721
*770 FILLER_0_103_727
*771 FILLER_0_103_729
*772 FILLER_0_103_741
*773 FILLER_0_103_753
*774 FILLER_0_103_765
*775 FILLER_0_103_777
*776 FILLER_0_103_783
*777 FILLER_0_103_785
*778 FILLER_0_103_797
*779 FILLER_0_103_809
*780 FILLER_0_103_81
*781 FILLER_0_103_821
*782 FILLER_0_103_833
*783 FILLER_0_103_839
*784 FILLER_0_103_841
*785 FILLER_0_103_853
*786 FILLER_0_103_865
*787 FILLER_0_103_877
*788 FILLER_0_103_889
*789 FILLER_0_103_895
*790 FILLER_0_103_897
*791 FILLER_0_103_909
*792 FILLER_0_103_921
*793 FILLER_0_103_93
*794 FILLER_0_103_933
*795 FILLER_0_103_945
*796 FILLER_0_103_951
*797 FILLER_0_103_953
*798 FILLER_0_103_965
*799 FILLER_0_103_977
*800 FILLER_0_103_989
*801 FILLER_0_104_1005
*802 FILLER_0_104_1017
*803 FILLER_0_104_1029
*804 FILLER_0_104_1035
*805 FILLER_0_104_1037
*806 FILLER_0_104_1049
*807 FILLER_0_104_1057
*808 FILLER_0_104_109
*809 FILLER_0_104_121
*810 FILLER_0_104_133
*811 FILLER_0_104_139
*812 FILLER_0_104_141
*813 FILLER_0_104_15
*814 FILLER_0_104_153
*815 FILLER_0_104_165
*816 FILLER_0_104_177
*817 FILLER_0_104_189
*818 FILLER_0_104_195
*819 FILLER_0_104_197
*820 FILLER_0_104_209
*821 FILLER_0_104_221
*822 FILLER_0_104_247
*823 FILLER_0_104_251
*824 FILLER_0_104_253
*825 FILLER_0_104_265
*826 FILLER_0_104_27
*827 FILLER_0_104_277
*828 FILLER_0_104_289
*829 FILLER_0_104_29
*830 FILLER_0_104_3
*831 FILLER_0_104_301
*832 FILLER_0_104_307
*833 FILLER_0_104_309
*834 FILLER_0_104_321
*835 FILLER_0_104_333
*836 FILLER_0_104_345
*837 FILLER_0_104_357
*838 FILLER_0_104_363
*839 FILLER_0_104_365
*840 FILLER_0_104_377
*841 FILLER_0_104_389
*842 FILLER_0_104_401
*843 FILLER_0_104_41
*844 FILLER_0_104_413
*845 FILLER_0_104_419
*846 FILLER_0_104_421
*847 FILLER_0_104_433
*848 FILLER_0_104_445
*849 FILLER_0_104_457
*850 FILLER_0_104_469
*851 FILLER_0_104_475
*852 FILLER_0_104_477
*853 FILLER_0_104_489
*854 FILLER_0_104_501
*855 FILLER_0_104_507
*856 FILLER_0_104_519
*857 FILLER_0_104_53
*858 FILLER_0_104_531
*859 FILLER_0_104_533
*860 FILLER_0_104_545
*861 FILLER_0_104_557
*862 FILLER_0_104_569
*863 FILLER_0_104_581
*864 FILLER_0_104_587
*865 FILLER_0_104_589
*866 FILLER_0_104_601
*867 FILLER_0_104_613
*868 FILLER_0_104_625
*869 FILLER_0_104_637
*870 FILLER_0_104_643
*871 FILLER_0_104_645
*872 FILLER_0_104_65
*873 FILLER_0_104_657
*874 FILLER_0_104_669
*875 FILLER_0_104_681
*876 FILLER_0_104_693
*877 FILLER_0_104_699
*878 FILLER_0_104_701
*879 FILLER_0_104_713
*880 FILLER_0_104_725
*881 FILLER_0_104_737
*882 FILLER_0_104_749
*883 FILLER_0_104_755
*884 FILLER_0_104_757
*885 FILLER_0_104_769
*886 FILLER_0_104_77
*887 FILLER_0_104_781
*888 FILLER_0_104_793
*889 FILLER_0_104_805
*890 FILLER_0_104_811
*891 FILLER_0_104_813
*892 FILLER_0_104_825
*893 FILLER_0_104_83
*894 FILLER_0_104_837
*895 FILLER_0_104_849
*896 FILLER_0_104_85
*897 FILLER_0_104_861
*898 FILLER_0_104_867
*899 FILLER_0_104_869
*900 FILLER_0_104_881
*901 FILLER_0_104_893
*902 FILLER_0_104_905
*903 FILLER_0_104_917
*904 FILLER_0_104_923
*905 FILLER_0_104_925
*906 FILLER_0_104_937
*907 FILLER_0_104_949
*908 FILLER_0_104_961
*909 FILLER_0_104_97
*910 FILLER_0_104_973
*911 FILLER_0_104_979
*912 FILLER_0_104_981
*913 FILLER_0_104_993
*914 FILLER_0_105_1009
*915 FILLER_0_105_1021
*916 FILLER_0_105_1033
*917 FILLER_0_105_1045
*918 FILLER_0_105_105
*919 FILLER_0_105_1057
*920 FILLER_0_105_111
*921 FILLER_0_105_113
*922 FILLER_0_105_125
*923 FILLER_0_105_137
*924 FILLER_0_105_149
*925 FILLER_0_105_15
*926 FILLER_0_105_161
*927 FILLER_0_105_167
*928 FILLER_0_105_169
*929 FILLER_0_105_181
*930 FILLER_0_105_193
*931 FILLER_0_105_205
*932 FILLER_0_105_217
*933 FILLER_0_105_223
*934 FILLER_0_105_225
*935 FILLER_0_105_237
*936 FILLER_0_105_249
*937 FILLER_0_105_261
*938 FILLER_0_105_27
*939 FILLER_0_105_273
*940 FILLER_0_105_279
*941 FILLER_0_105_281
*942 FILLER_0_105_293
*943 FILLER_0_105_3
*944 FILLER_0_105_305
*945 FILLER_0_105_317
*946 FILLER_0_105_329
*947 FILLER_0_105_335
*948 FILLER_0_105_337
*949 FILLER_0_105_349
*950 FILLER_0_105_361
*951 FILLER_0_105_373
*952 FILLER_0_105_385
*953 FILLER_0_105_39
*954 FILLER_0_105_391
*955 FILLER_0_105_393
*956 FILLER_0_105_405
*957 FILLER_0_105_417
*958 FILLER_0_105_429
*959 FILLER_0_105_441
*960 FILLER_0_105_447
*961 FILLER_0_105_449
*962 FILLER_0_105_461
*963 FILLER_0_105_473
*964 FILLER_0_105_485
*965 FILLER_0_105_497
*966 FILLER_0_105_503
*967 FILLER_0_105_505
*968 FILLER_0_105_51
*969 FILLER_0_105_517
*970 FILLER_0_105_529
*971 FILLER_0_105_541
*972 FILLER_0_105_55
*973 FILLER_0_105_553
*974 FILLER_0_105_559
*975 FILLER_0_105_561
*976 FILLER_0_105_57
*977 FILLER_0_105_584
*978 FILLER_0_105_596
*979 FILLER_0_105_608
*980 FILLER_0_105_617
*981 FILLER_0_105_629
*982 FILLER_0_105_641
*983 FILLER_0_105_653
*984 FILLER_0_105_665
*985 FILLER_0_105_671
*986 FILLER_0_105_673
*987 FILLER_0_105_685
*988 FILLER_0_105_69
*989 FILLER_0_105_697
*990 FILLER_0_105_709
*991 FILLER_0_105_721
*992 FILLER_0_105_727
*993 FILLER_0_105_729
*994 FILLER_0_105_741
*995 FILLER_0_105_753
*996 FILLER_0_105_765
*997 FILLER_0_105_777
*998 FILLER_0_105_783
*999 FILLER_0_105_785
*1000 FILLER_0_105_797
*1001 FILLER_0_105_809
*1002 FILLER_0_105_81
*1003 FILLER_0_105_821
*1004 FILLER_0_105_833
*1005 FILLER_0_105_839
*1006 FILLER_0_105_841
*1007 FILLER_0_105_853
*1008 FILLER_0_105_865
*1009 FILLER_0_105_877
*1010 FILLER_0_105_889
*1011 FILLER_0_105_895
*1012 FILLER_0_105_897
*1013 FILLER_0_105_909
*1014 FILLER_0_105_921
*1015 FILLER_0_105_93
*1016 FILLER_0_105_933
*1017 FILLER_0_105_945
*1018 FILLER_0_105_951
*1019 FILLER_0_105_953
*1020 FILLER_0_105_965
*1021 FILLER_0_105_977
*1022 FILLER_0_105_989
*1023 FILLER_0_105_997
*1024 FILLER_0_106_1005
*1025 FILLER_0_106_1017
*1026 FILLER_0_106_1029
*1027 FILLER_0_106_1035
*1028 FILLER_0_106_1037
*1029 FILLER_0_106_1049
*1030 FILLER_0_106_1057
*1031 FILLER_0_106_109
*1032 FILLER_0_106_121
*1033 FILLER_0_106_133
*1034 FILLER_0_106_139
*1035 FILLER_0_106_141
*1036 FILLER_0_106_15
*1037 FILLER_0_106_153
*1038 FILLER_0_106_165
*1039 FILLER_0_106_177
*1040 FILLER_0_106_189
*1041 FILLER_0_106_195
*1042 FILLER_0_106_197
*1043 FILLER_0_106_209
*1044 FILLER_0_106_221
*1045 FILLER_0_106_233
*1046 FILLER_0_106_245
*1047 FILLER_0_106_251
*1048 FILLER_0_106_253
*1049 FILLER_0_106_265
*1050 FILLER_0_106_27
*1051 FILLER_0_106_277
*1052 FILLER_0_106_289
*1053 FILLER_0_106_29
*1054 FILLER_0_106_3
*1055 FILLER_0_106_301
*1056 FILLER_0_106_307
*1057 FILLER_0_106_309
*1058 FILLER_0_106_321
*1059 FILLER_0_106_329
*1060 FILLER_0_106_332
*1061 FILLER_0_106_336
*1062 FILLER_0_106_361
*1063 FILLER_0_106_365
*1064 FILLER_0_106_377
*1065 FILLER_0_106_389
*1066 FILLER_0_106_401
*1067 FILLER_0_106_41
*1068 FILLER_0_106_413
*1069 FILLER_0_106_419
*1070 FILLER_0_106_421
*1071 FILLER_0_106_433
*1072 FILLER_0_106_445
*1073 FILLER_0_106_457
*1074 FILLER_0_106_469
*1075 FILLER_0_106_475
*1076 FILLER_0_106_477
*1077 FILLER_0_106_489
*1078 FILLER_0_106_501
*1079 FILLER_0_106_513
*1080 FILLER_0_106_525
*1081 FILLER_0_106_53
*1082 FILLER_0_106_531
*1083 FILLER_0_106_533
*1084 FILLER_0_106_545
*1085 FILLER_0_106_553
*1086 FILLER_0_106_578
*1087 FILLER_0_106_586
*1088 FILLER_0_106_589
*1089 FILLER_0_106_601
*1090 FILLER_0_106_613
*1091 FILLER_0_106_625
*1092 FILLER_0_106_637
*1093 FILLER_0_106_643
*1094 FILLER_0_106_645
*1095 FILLER_0_106_65
*1096 FILLER_0_106_657
*1097 FILLER_0_106_669
*1098 FILLER_0_106_681
*1099 FILLER_0_106_693
*1100 FILLER_0_106_699
*1101 FILLER_0_106_701
*1102 FILLER_0_106_713
*1103 FILLER_0_106_725
*1104 FILLER_0_106_737
*1105 FILLER_0_106_749
*1106 FILLER_0_106_755
*1107 FILLER_0_106_757
*1108 FILLER_0_106_769
*1109 FILLER_0_106_77
*1110 FILLER_0_106_781
*1111 FILLER_0_106_793
*1112 FILLER_0_106_805
*1113 FILLER_0_106_811
*1114 FILLER_0_106_813
*1115 FILLER_0_106_825
*1116 FILLER_0_106_83
*1117 FILLER_0_106_837
*1118 FILLER_0_106_849
*1119 FILLER_0_106_85
*1120 FILLER_0_106_861
*1121 FILLER_0_106_867
*1122 FILLER_0_106_869
*1123 FILLER_0_106_881
*1124 FILLER_0_106_893
*1125 FILLER_0_106_905
*1126 FILLER_0_106_917
*1127 FILLER_0_106_923
*1128 FILLER_0_106_925
*1129 FILLER_0_106_937
*1130 FILLER_0_106_949
*1131 FILLER_0_106_961
*1132 FILLER_0_106_97
*1133 FILLER_0_106_973
*1134 FILLER_0_106_979
*1135 FILLER_0_106_981
*1136 FILLER_0_106_993
*1137 FILLER_0_107_1001
*1138 FILLER_0_107_1007
*1139 FILLER_0_107_1009
*1140 FILLER_0_107_1021
*1141 FILLER_0_107_1033
*1142 FILLER_0_107_1045
*1143 FILLER_0_107_105
*1144 FILLER_0_107_1057
*1145 FILLER_0_107_111
*1146 FILLER_0_107_113
*1147 FILLER_0_107_125
*1148 FILLER_0_107_137
*1149 FILLER_0_107_149
*1150 FILLER_0_107_15
*1151 FILLER_0_107_161
*1152 FILLER_0_107_167
*1153 FILLER_0_107_169
*1154 FILLER_0_107_181
*1155 FILLER_0_107_193
*1156 FILLER_0_107_205
*1157 FILLER_0_107_217
*1158 FILLER_0_107_223
*1159 FILLER_0_107_225
*1160 FILLER_0_107_237
*1161 FILLER_0_107_249
*1162 FILLER_0_107_257
*1163 FILLER_0_107_262
*1164 FILLER_0_107_27
*1165 FILLER_0_107_273
*1166 FILLER_0_107_279
*1167 FILLER_0_107_281
*1168 FILLER_0_107_293
*1169 FILLER_0_107_3
*1170 FILLER_0_107_305
*1171 FILLER_0_107_317
*1172 FILLER_0_107_329
*1173 FILLER_0_107_335
*1174 FILLER_0_107_337
*1175 FILLER_0_107_349
*1176 FILLER_0_107_361
*1177 FILLER_0_107_373
*1178 FILLER_0_107_385
*1179 FILLER_0_107_39
*1180 FILLER_0_107_391
*1181 FILLER_0_107_393
*1182 FILLER_0_107_405
*1183 FILLER_0_107_417
*1184 FILLER_0_107_429
*1185 FILLER_0_107_441
*1186 FILLER_0_107_447
*1187 FILLER_0_107_449
*1188 FILLER_0_107_461
*1189 FILLER_0_107_473
*1190 FILLER_0_107_494
*1191 FILLER_0_107_502
*1192 FILLER_0_107_505
*1193 FILLER_0_107_51
*1194 FILLER_0_107_517
*1195 FILLER_0_107_529
*1196 FILLER_0_107_541
*1197 FILLER_0_107_55
*1198 FILLER_0_107_553
*1199 FILLER_0_107_559
*1200 FILLER_0_107_561
*1201 FILLER_0_107_57
*1202 FILLER_0_107_573
*1203 FILLER_0_107_585
*1204 FILLER_0_107_597
*1205 FILLER_0_107_609
*1206 FILLER_0_107_615
*1207 FILLER_0_107_617
*1208 FILLER_0_107_622
*1209 FILLER_0_107_634
*1210 FILLER_0_107_642
*1211 FILLER_0_107_647
*1212 FILLER_0_107_659
*1213 FILLER_0_107_671
*1214 FILLER_0_107_673
*1215 FILLER_0_107_685
*1216 FILLER_0_107_69
*1217 FILLER_0_107_697
*1218 FILLER_0_107_709
*1219 FILLER_0_107_721
*1220 FILLER_0_107_727
*1221 FILLER_0_107_729
*1222 FILLER_0_107_741
*1223 FILLER_0_107_753
*1224 FILLER_0_107_765
*1225 FILLER_0_107_777
*1226 FILLER_0_107_783
*1227 FILLER_0_107_785
*1228 FILLER_0_107_797
*1229 FILLER_0_107_809
*1230 FILLER_0_107_81
*1231 FILLER_0_107_821
*1232 FILLER_0_107_833
*1233 FILLER_0_107_839
*1234 FILLER_0_107_841
*1235 FILLER_0_107_853
*1236 FILLER_0_107_865
*1237 FILLER_0_107_877
*1238 FILLER_0_107_889
*1239 FILLER_0_107_895
*1240 FILLER_0_107_897
*1241 FILLER_0_107_909
*1242 FILLER_0_107_921
*1243 FILLER_0_107_93
*1244 FILLER_0_107_933
*1245 FILLER_0_107_945
*1246 FILLER_0_107_951
*1247 FILLER_0_107_953
*1248 FILLER_0_107_965
*1249 FILLER_0_107_977
*1250 FILLER_0_107_989
*1251 FILLER_0_108_1005
*1252 FILLER_0_108_1017
*1253 FILLER_0_108_1029
*1254 FILLER_0_108_1035
*1255 FILLER_0_108_1037
*1256 FILLER_0_108_1049
*1257 FILLER_0_108_1057
*1258 FILLER_0_108_109
*1259 FILLER_0_108_121
*1260 FILLER_0_108_133
*1261 FILLER_0_108_139
*1262 FILLER_0_108_141
*1263 FILLER_0_108_15
*1264 FILLER_0_108_153
*1265 FILLER_0_108_165
*1266 FILLER_0_108_177
*1267 FILLER_0_108_189
*1268 FILLER_0_108_195
*1269 FILLER_0_108_197
*1270 FILLER_0_108_209
*1271 FILLER_0_108_221
*1272 FILLER_0_108_233
*1273 FILLER_0_108_245
*1274 FILLER_0_108_251
*1275 FILLER_0_108_253
*1276 FILLER_0_108_265
*1277 FILLER_0_108_27
*1278 FILLER_0_108_277
*1279 FILLER_0_108_289
*1280 FILLER_0_108_29
*1281 FILLER_0_108_3
*1282 FILLER_0_108_301
*1283 FILLER_0_108_307
*1284 FILLER_0_108_309
*1285 FILLER_0_108_321
*1286 FILLER_0_108_333
*1287 FILLER_0_108_345
*1288 FILLER_0_108_357
*1289 FILLER_0_108_363
*1290 FILLER_0_108_365
*1291 FILLER_0_108_377
*1292 FILLER_0_108_389
*1293 FILLER_0_108_401
*1294 FILLER_0_108_41
*1295 FILLER_0_108_413
*1296 FILLER_0_108_419
*1297 FILLER_0_108_421
*1298 FILLER_0_108_433
*1299 FILLER_0_108_445
*1300 FILLER_0_108_457
*1301 FILLER_0_108_469
*1302 FILLER_0_108_475
*1303 FILLER_0_108_477
*1304 FILLER_0_108_489
*1305 FILLER_0_108_501
*1306 FILLER_0_108_513
*1307 FILLER_0_108_525
*1308 FILLER_0_108_53
*1309 FILLER_0_108_531
*1310 FILLER_0_108_533
*1311 FILLER_0_108_545
*1312 FILLER_0_108_557
*1313 FILLER_0_108_569
*1314 FILLER_0_108_581
*1315 FILLER_0_108_587
*1316 FILLER_0_108_589
*1317 FILLER_0_108_601
*1318 FILLER_0_108_613
*1319 FILLER_0_108_625
*1320 FILLER_0_108_637
*1321 FILLER_0_108_643
*1322 FILLER_0_108_645
*1323 FILLER_0_108_65
*1324 FILLER_0_108_657
*1325 FILLER_0_108_669
*1326 FILLER_0_108_681
*1327 FILLER_0_108_693
*1328 FILLER_0_108_699
*1329 FILLER_0_108_701
*1330 FILLER_0_108_713
*1331 FILLER_0_108_725
*1332 FILLER_0_108_737
*1333 FILLER_0_108_749
*1334 FILLER_0_108_755
*1335 FILLER_0_108_757
*1336 FILLER_0_108_769
*1337 FILLER_0_108_77
*1338 FILLER_0_108_781
*1339 FILLER_0_108_793
*1340 FILLER_0_108_805
*1341 FILLER_0_108_811
*1342 FILLER_0_108_813
*1343 FILLER_0_108_825
*1344 FILLER_0_108_83
*1345 FILLER_0_108_837
*1346 FILLER_0_108_849
*1347 FILLER_0_108_85
*1348 FILLER_0_108_861
*1349 FILLER_0_108_867
*1350 FILLER_0_108_869
*1351 FILLER_0_108_881
*1352 FILLER_0_108_893
*1353 FILLER_0_108_905
*1354 FILLER_0_108_917
*1355 FILLER_0_108_923
*1356 FILLER_0_108_925
*1357 FILLER_0_108_937
*1358 FILLER_0_108_949
*1359 FILLER_0_108_961
*1360 FILLER_0_108_97
*1361 FILLER_0_108_973
*1362 FILLER_0_108_979
*1363 FILLER_0_108_981
*1364 FILLER_0_108_993
*1365 FILLER_0_109_1001
*1366 FILLER_0_109_1007
*1367 FILLER_0_109_1009
*1368 FILLER_0_109_1021
*1369 FILLER_0_109_1033
*1370 FILLER_0_109_1045
*1371 FILLER_0_109_105
*1372 FILLER_0_109_1057
*1373 FILLER_0_109_111
*1374 FILLER_0_109_113
*1375 FILLER_0_109_125
*1376 FILLER_0_109_137
*1377 FILLER_0_109_149
*1378 FILLER_0_109_15
*1379 FILLER_0_109_161
*1380 FILLER_0_109_167
*1381 FILLER_0_109_169
*1382 FILLER_0_109_181
*1383 FILLER_0_109_193
*1384 FILLER_0_109_205
*1385 FILLER_0_109_216
*1386 FILLER_0_109_225
*1387 FILLER_0_109_237
*1388 FILLER_0_109_249
*1389 FILLER_0_109_261
*1390 FILLER_0_109_27
*1391 FILLER_0_109_273
*1392 FILLER_0_109_279
*1393 FILLER_0_109_281
*1394 FILLER_0_109_293
*1395 FILLER_0_109_3
*1396 FILLER_0_109_305
*1397 FILLER_0_109_317
*1398 FILLER_0_109_329
*1399 FILLER_0_109_335
*1400 FILLER_0_109_337
*1401 FILLER_0_109_349
*1402 FILLER_0_109_361
*1403 FILLER_0_109_373
*1404 FILLER_0_109_385
*1405 FILLER_0_109_39
*1406 FILLER_0_109_391
*1407 FILLER_0_109_393
*1408 FILLER_0_109_405
*1409 FILLER_0_109_417
*1410 FILLER_0_109_429
*1411 FILLER_0_109_441
*1412 FILLER_0_109_447
*1413 FILLER_0_109_449
*1414 FILLER_0_109_461
*1415 FILLER_0_109_473
*1416 FILLER_0_109_485
*1417 FILLER_0_109_497
*1418 FILLER_0_109_503
*1419 FILLER_0_109_505
*1420 FILLER_0_109_51
*1421 FILLER_0_109_517
*1422 FILLER_0_109_529
*1423 FILLER_0_109_541
*1424 FILLER_0_109_55
*1425 FILLER_0_109_553
*1426 FILLER_0_109_559
*1427 FILLER_0_109_561
*1428 FILLER_0_109_57
*1429 FILLER_0_109_573
*1430 FILLER_0_109_585
*1431 FILLER_0_109_597